P6
40 40
255
~n@kb8he>b^;TP-cZ2j_7W|NbGFMtNdW2bW<ucy`p\ob1\Z4geFIO,[Z:ZYDJQ.gvpƨiȜmyaxDypB^e>Z[9SS0OR+zrGūoRWwW{Iso?q]nQ}ang}nm]Dj`QrzVfe<ba9PS,uxRYrDǘin<ikALW2QW9Z]4gc;ösj`mTnR~jNuab\w~Xzl򵢭mpzb\o]ѸѪne6`d@wvJzEo<g3}Lmis`kvLx|L}}SdhAOQ.KJ)^X6WÈnfE{iKwirgv^x»ۼвгct7vqAhc;UFLu>cxt?OO'imAa`wGn`4q`?wdPcqWJs<o]pb{׼vWU\Y_Wx|O|k9p={Sudvdxcuau`s\nmˬbi_MS_WNmŐb^qb˷wYӝъ|esXqLQyati}n|pret@399D9B<;=U갘yzuAqVZſszcyivfxbrcqewik[xG4;992mt5=:<>?]vjٳɯǴr|Vxfyk{kxluhzlsc{x>899::7B;:7:=>D饏mKV.o`reqfpemapcxjk5:899;1w6:78:<DEc^SjrakD\lKuiwjukthtendԹ9A:9;885N3999;ADDѱk|wۂnTeFpzVsethukujm`MB@=:9<-~89:;;=ABLvmDO9W^=[fC\kCuftgtiqgwjYFHDB>==Bb4<;:>>>@w˻l[=cmK\`:P_=zlylznscHRJFDPD4~>:<;<@@ANmcg<PX@o_q`m^qZkURMHEI=G1>:<>@C<­}{VuyZPWAaTqcJ~U[URMGE:xY4<=>AB=`̩<B'ĭeOaa7Z]ZUQMEL;<;>ADEBbkQVQWU7_a_ZURDD9<=?DD:cmSMKZRDpcfb\ZUIz6<;<>?C9oOS-dYClR|h`igieb]UP[jJ\5FL;9;<;<=B:`c4pscNM>ylnekkkhh_WUPIGA^<>:;99<<<>@8aQV5T]LNMCvzsrtpid_[SNJD]<<<:97:;=>@;xz]MT3DM3~qytnie^UPKC\?;:8869:8AB7kfGRV3JQ;uz{soha[SNC[??><99:<8??>qY?S]HJTBsw{unhe`VRGYABA=98988;7YɵPQ7MQ=BO6pvvqkifc]VK]GA=>=9=;8=2mi<F,KQ:39#ryqttlg^YO_MB?=>9?>99<IE3-9#EP:N[Fjtpvumh\XM\E@@=<:;8:0`v#5;A,CM0MaHyukstskj`WPZJ@@>;<975CBNC5<+8D&DR@TZDfcwqqqole]SYP?A>>H;:2w)61<)8C)^jWS`QmgtlnkkmkeWXQ?B>;E=*Y^IT[UJV?>K-,:hh}]ZkhmopgYVRCHA=;=xelTTfZBJEvzhyz!MUxξuhsuo^Y[CH=5Fu{vpj^VL::Dld@tAfr˿u^ywsX{ɂȘΤ}o~`sxXhlS^_VYZOMNC>>?78A9?|DxGsap}rbfv̇͂뢟ٷٰQ|KTy^iB954'*5$%:$!8#!B&"J*%J2,M60Q3,R6,T6-X8/kllu^omi{Uo:lCsuȶPYKlzUGKQ74V:6Y<5Q:3U<4Z<5\@7]B:_@7cC6_C6`A6tHetLayz~Ĉߟڄwml}VA@S7/_:2_<3Z92Y92`:2i>3f=4g=2l=1b=0a;/